123218
  -OEChem-05081511293D

 40 50  0     0  0  0  0  0  0999 V2000
   -1.2745    0.1218    1.7032 C   0  0  0  0  0  0  0  0  0  0  0  0
   -1.5450    1.2671    0.7403 C   0  0  0  0  0  0  0  0  0  0  0  0
   -1.4931   -1.1834    0.9543 C   0  0  0  0  0  0  0  0  0  0  0  0
    0.1881    0.1887    2.1140 C   0  0  0  0  0  0  0  0  0  0  0  0
   -1.9306    0.6697   -0.6039 C   0  0  0  0  0  0  0  0  0  0  0  0
   -0.2495    2.0418    0.5558 C   0  0  0  0  0  0  0  0  0  0  0  0
   -1.8985   -0.8447   -0.4716 C   0  0  0  0  0  0  0  0  0  0  0  0
   -0.1655   -1.9232    0.9022 C   0  0  0  0  0  0  0  0  0  0  0  0
    0.8216    1.3753    1.4049 C   0  0  0  0  0  0  0  0  0  0  0  0
    0.8735   -1.0753    1.6190 C   0  0  0  0  0  0  0  0  0  0  0  0
   -0.8735    1.0752   -1.6189 C   0  0  0  0  0  0  0  0  0  0  0  0
    0.1655    1.9233   -0.9022 C   0  0  0  0  0  0  0  0  0  0  0  0
   -0.8216   -1.3754   -1.4049 C   0  0  0  0  0  0  0  0  0  0  0  0
    0.2495   -2.0418   -0.5558 C   0  0  0  0  0  0  0  0  0  0  0  0
    1.8986    0.8448    0.4716 C   0  0  0  0  0  0  0  0  0  0  0  0
    1.9306   -0.6697    0.6038 C   0  0  0  0  0  0  0  0  0  0  0  0
   -0.1881   -0.1886   -2.1140 C   0  0  0  0  0  0  0  0  0  0  0  0
    1.4931    1.1835   -0.9543 C   0  0  0  0  0  0  0  0  0  0  0  0
    1.5449   -1.2671   -0.7402 C   0  0  0  0  0  0  0  0  0  0  0  0
    1.2745   -0.1218   -1.7033 C   0  0  0  0  0  0  0  0  0  0  0  0
   -1.9299    0.1844    2.5793 H   0  0  0  0  0  0  0  0  0  0  0  0
   -2.3395    1.9188    1.1210 H   0  0  0  0  0  0  0  0  0  0  0  0
   -2.2609   -1.7920    1.4452 H   0  0  0  0  0  0  0  0  0  0  0  0
    0.2848    0.2857    3.2013 H   0  0  0  0  0  0  0  0  0  0  0  0
   -2.9235    1.0142   -0.9145 H   0  0  0  0  0  0  0  0  0  0  0  0
   -0.3778    3.0920    0.8417 H   0  0  0  0  0  0  0  0  0  0  0  0
   -2.8750   -1.2792   -0.7141 H   0  0  0  0  0  0  0  0  0  0  0  0
   -0.2507   -2.9124    1.3662 H   0  0  0  0  0  0  0  0  0  0  0  0
    1.2440    2.0826    2.1275 H   0  0  0  0  0  0  0  0  0  0  0  0
    1.3227   -1.6282    2.4517 H   0  0  0  0  0  0  0  0  0  0  0  0
   -1.3227    1.6283   -2.4516 H   0  0  0  0  0  0  0  0  0  0  0  0
    0.2505    2.9124   -1.3663 H   0  0  0  0  0  0  0  0  0  0  0  0
   -1.2442   -2.0827   -2.1276 H   0  0  0  0  0  0  0  0  0  0  0  0
    0.3778   -3.0920   -0.8417 H   0  0  0  0  0  0  0  0  0  0  0  0
    2.8749    1.2793    0.7141 H   0  0  0  0  0  0  0  0  0  0  0  0
    2.9236   -1.0142    0.9144 H   0  0  0  0  0  0  0  0  0  0  0  0
   -0.2848   -0.2857   -3.2013 H   0  0  0  0  0  0  0  0  0  0  0  0
    2.2609    1.7921   -1.4452 H   0  0  0  0  0  0  0  0  0  0  0  0
    2.3395   -1.9189   -1.1209 H   0  0  0  0  0  0  0  0  0  0  0  0
    1.9300   -0.1844   -2.5793 H   0  0  0  0  0  0  0  0  0  0  0  0
  1  2  1  0  0  0  0
  1  3  1  0  0  0  0
  1  4  1  0  0  0  0
  1 21  1  0  0  0  0
  2  5  1  0  0  0  0
  2  6  1  0  0  0  0
  2 22  1  0  0  0  0
  3  7  1  0  0  0  0
  3  8  1  0  0  0  0
  3 23  1  0  0  0  0
  4  9  1  0  0  0  0
  4 10  1  0  0  0  0
  4 24  1  0  0  0  0
  5  7  1  0  0  0  0
  5 11  1  0  0  0  0
  5 25  1  0  0  0  0
  6  9  1  0  0  0  0
  6 12  1  0  0  0  0
  6 26  1  0  0  0  0
  7 13  1  0  0  0  0
  7 27  1  0  0  0  0
  8 10  1  0  0  0  0
  8 14  1  0  0  0  0
  8 28  1  0  0  0  0
  9 15  1  0  0  0  0
  9 29  1  0  0  0  0
 10 16  1  0  0  0  0
 10 30  1  0  0  0  0
 11 12  1  0  0  0  0
 11 17  1  0  0  0  0
 11 31  1  0  0  0  0
 12 18  1  0  0  0  0
 12 32  1  0  0  0  0
 13 14  1  0  0  0  0
 13 17  1  0  0  0  0
 13 33  1  0  0  0  0
 14 19  1  0  0  0  0
 14 34  1  0  0  0  0
 15 16  1  0  0  0  0
 15 18  1  0  0  0  0
 15 35  1  0  0  0  0
 16 19  1  0  0  0  0
 16 36  1  0  0  0  0
 17 20  1  0  0  0  0
 17 37  1  0  0  0  0
 18 20  1  0  0  0  0
 18 38  1  0  0  0  0
 19 20  1  0  0  0  0
 19 39  1  0  0  0  0
 20 40  1  0  0  0  0
M  END
> <PUBCHEM_COMPOUND_CID>
123218

> <PUBCHEM_CONFORMER_RMSD>
0.6

> <PUBCHEM_CONFORMER_DIVERSEORDER>
1

> <PUBCHEM_MMFF94_PARTIAL_CHARGES>
0

> <PUBCHEM_EFFECTIVE_ROTOR_COUNT>
0

> <PUBCHEM_PHARMACOPHORE_FEATURES>
12
5 1 2 3 5 7 rings
5 1 2 4 6 9 rings
5 1 3 4 8 10 rings
5 11 12 17 18 20 rings
5 13 14 17 19 20 rings
5 15 16 18 19 20 rings
5 2 5 6 11 12 rings
5 3 7 8 13 14 rings
5 4 9 10 15 16 rings
5 5 7 11 13 17 rings
5 6 9 12 15 18 rings
5 8 10 14 16 19 rings

> <PUBCHEM_HEAVY_ATOM_COUNT>
20

> <PUBCHEM_ATOM_DEF_STEREO_COUNT>
0

> <PUBCHEM_ATOM_UDEF_STEREO_COUNT>
0

> <PUBCHEM_BOND_DEF_STEREO_COUNT>
0

> <PUBCHEM_BOND_UDEF_STEREO_COUNT>
0

> <PUBCHEM_ISOTOPIC_ATOM_COUNT>
0

> <PUBCHEM_COMPONENT_COUNT>
1

> <PUBCHEM_CACTVS_TAUTO_COUNT>
1

> <PUBCHEM_CONFORMER_ID>
0001E15200000001

> <PUBCHEM_MMFF94_ENERGY>
148.2294

> <PUBCHEM_FEATURE_SELFOVERLAP>
73.758

> <PUBCHEM_SHAPE_FINGERPRINT>
10863032 1 12717063302046382092
10948715 1 14029403470285356154
12423570 1 12507606246808226667
13024252 1 9744046623045153815
141345 1 8213864837495658853
144361 1 13625542236290966900
14817 1 14240448211491788271
16945 1 15474859350381630070
23419403 2 11146096520108194277

> <PUBCHEM_SHAPE_MULTIPOLES>
411.59
2.13
2.13
2.13
0
0
0
0
0
0
0
0
0
0

> <PUBCHEM_SHAPE_SELFOVERLAP>
1076.016

> <PUBCHEM_SHAPE_VOLUME>
154.2

> <PUBCHEM_COORDINATE_TYPE>
2
5
10

$$$$
